Version 4
SHEET 1 2752 1576
WIRE 368 944 192 944
WIRE 448 944 368 944
WIRE 608 944 512 944
WIRE 368 976 368 944
WIRE 192 1040 192 944
WIRE -208 1104 -256 1104
WIRE -160 1104 -208 1104
WIRE -112 1104 -160 1104
WIRE 0 1104 -48 1104
WIRE 48 1104 0 1104
WIRE 368 1104 368 1040
WIRE 368 1104 336 1104
WIRE 432 1104 368 1104
WIRE 544 1104 512 1104
WIRE 608 1104 608 944
WIRE 608 1104 544 1104
WIRE 704 1104 608 1104
WIRE 768 1104 704 1104
WIRE 848 1104 768 1104
WIRE 1072 1104 848 1104
WIRE 1648 1104 1360 1104
WIRE 1776 1104 1648 1104
WIRE 1792 1104 1776 1104
WIRE 608 1136 608 1104
WIRE 544 1152 544 1104
WIRE 704 1184 704 1104
WIRE 1648 1184 1648 1104
WIRE -256 1216 -256 1104
WIRE -256 1232 -256 1216
WIRE -160 1232 -160 1104
WIRE -144 1232 -160 1232
WIRE 48 1232 -64 1232
WIRE 544 1232 544 1216
WIRE 544 1232 336 1232
WIRE 608 1232 608 1216
WIRE 608 1232 544 1232
WIRE -160 1264 -160 1232
WIRE 848 1264 848 1104
WIRE 1072 1264 848 1264
WIRE 0 1280 0 1104
WIRE 848 1280 848 1264
WIRE 1792 1280 1792 1104
WIRE 368 1296 368 1104
WIRE 608 1296 608 1232
WIRE -256 1328 -256 1312
WIRE -160 1376 -160 1344
WIRE -112 1376 -160 1376
WIRE 0 1376 0 1344
WIRE 0 1376 -112 1376
WIRE 704 1392 704 1248
WIRE 848 1392 848 1360
WIRE 848 1392 704 1392
WIRE -112 1408 -112 1376
WIRE 192 1408 192 1296
WIRE 368 1408 368 1360
WIRE 608 1408 608 1376
WIRE 704 1408 704 1392
WIRE 1216 1408 1216 1312
WIRE 1648 1408 1648 1248
WIRE 1792 1408 1792 1360
FLAG 192 1408 0
FLAG 608 1408 0
FLAG 368 1408 0
FLAG 704 1408 0
FLAG -256 1328 0
FLAG 1776 1104 OUT
FLAG -112 1408 0
FLAG -256 1216 IN
FLAG 1792 1408 0
FLAG 1216 1408 0
FLAG 1648 1408 0
FLAG -208 1104 VIN
FLAG 768 1104 3V4
SYMBOL cap 352 976 R0
SYMATTR InstName C1
SYMATTR Value 0.22µ
SYMATTR SpiceLine V=10 Irms=1.21 Rser=0.0269337 Lser=0 mfg="KEMET" pn="C0603C224K8RAC" type="X7R"
SYMBOL ind 416 1120 R270
WINDOW 0 32 56 VTop 2
WINDOW 3 5 56 VBottom 2
SYMATTR InstName L1
SYMATTR Value 47µ
SYMATTR SpiceLine Ipk=0.2 Rser=2.145 Rpar=22000 Cpar=2p mfg="Wurth Elektronik" pn="744029470 WE-TPC 2813"
SYMBOL RES 592 1120 R0
SYMATTR InstName R1
SYMATTR Value 1Meg
SYMATTR SpiceLine tol=1 pwr=0.1
SYMBOL res 592 1392 M180
WINDOW 0 36 76 Left 2
WINDOW 3 36 40 Left 2
SYMATTR InstName R2
SYMATTR Value 569K
SYMBOL schottky 352 1360 M180
WINDOW 0 24 72 Left 2
WINDOW 3 24 0 Left 2
SYMATTR InstName D1
SYMATTR Value MBRS130L
SYMBOL schottky 512 928 R90
WINDOW 0 0 32 VBottom 2
WINDOW 3 32 32 VTop 2
SYMATTR InstName D2
SYMATTR Value BAT54
SYMBOL VOLTAGE -256 1216 R0
WINDOW 123 0 0 Left 2
WINDOW 39 0 0 Left 2
SYMATTR InstName V1
SYMATTR Value 12
SYMBOL polcap 688 1184 R0
WINDOW 3 24 56 Left 2
SYMATTR InstName C2
SYMATTR Value 100µ
SYMATTR Description Capacitor
SYMATTR Type cap
SYMATTR SpiceLine V=2 Irms=3 Rser=0.011 Lser=0 mfg="Rubycon" pn="2SXB100M" type="Al electrolytic"
SYMBOL cap -16 1280 R0
WINDOW 3 26 55 Left 2
SYMATTR Value 2.2µ
SYMATTR InstName C3
SYMBOL RES -176 1248 R0
SYMATTR InstName R3
SYMATTR Value 1000K
SYMBOL PowerProducts\\LT1934 192 1168 R0
SYMATTR InstName U1
SYMBOL RES -48 1216 R90
WINDOW 0 0 56 VBottom 2
WINDOW 3 32 56 VTop 2
SYMATTR InstName R4
SYMATTR Value 100K
SYMBOL schottky -112 1120 R270
WINDOW 0 32 32 VTop 2
WINDOW 3 0 32 VBottom 2
SYMATTR InstName D3
SYMATTR Value MBR0530L
SYMATTR Description Diode
SYMATTR Type diode
SYMBOL cap 528 1152 R0
SYMATTR InstName C4
SYMATTR Value 10p
SYMATTR SpiceLine V=50 Irms=20.8m Rser=5.448 Lser=0
SYMBOL res 1776 1264 R0
SYMATTR InstName R5
SYMATTR Value 220
SYMATTR SpiceLine tol=1 pwr=1
SYMBOL polcap 1632 1184 R0
WINDOW 3 24 56 Left 2
SYMATTR InstName C6
SYMATTR Value 100µ
SYMATTR Description Capacitor
SYMATTR Type cap
SYMATTR SpiceLine V=2 Irms=3 Rser=0.011 Lser=0 mfg="Rubycon" pn="2SXB100M" type="Al electrolytic"
SYMBOL PowerProducts\\LTC1844-3.3 1216 1184 R0
SYMATTR InstName U3
SYMBOL res 832 1264 R0
SYMATTR InstName R6
SYMATTR Value 1Meg
SYMATTR SpiceLine tol=1 pwr=0.1
TEXT 88 1504 Left 2 !.tran 50 startup
TEXT 72 1560 Left 2 !.options gmin=1e-10
